Version 4
SHEET 1 2496 3908
WIRE -592 -288 -592 -352
WIRE -592 -128 -592 -208
WIRE -112 16 -192 16
WIRE -32 16 -112 16
WIRE 48 16 -32 16
WIRE 240 16 128 16
WIRE -112 48 -112 16
WIRE -32 48 -32 16
WIRE 240 48 240 16
WIRE 704 96 624 96
WIRE 816 96 768 96
WIRE 912 96 816 96
WIRE 816 112 816 96
WIRE -112 160 -112 128
WIRE -32 160 -32 112
WIRE -32 160 -112 160
WIRE 32 160 -32 160
WIRE 112 160 96 160
WIRE 240 160 240 128
WIRE 240 160 192 160
WIRE 624 192 624 176
WIRE 816 192 816 176
WIRE 816 192 624 192
WIRE 912 192 816 192
WIRE 912 208 912 192
WIRE 240 272 240 160
WIRE -32 352 -176 352
WIRE 192 352 48 352
WIRE 704 368 624 368
WIRE 816 368 768 368
WIRE 912 368 816 368
WIRE 816 384 816 368
WIRE 240 400 240 368
WIRE 624 464 624 448
WIRE 816 464 816 448
WIRE 816 464 624 464
WIRE 912 464 816 464
WIRE 912 480 912 464
FLAG -928 256 0
FLAG -928 176 Vd
FLAG -192 16 Vd
FLAG 912 96 Vo1+
FLAG 912 368 Vo2
FLAG 912 480 0
FLAG 912 192 Vo1-
FLAG 912 208 0
FLAG 1040 112 Vo1+
FLAG 1040 192 0
FLAG 1056 384 Vo2
FLAG 1056 464 0
FLAG 240 400 0
FLAG -592 -128 0
FLAG -592 -352 Vg
FLAG -176 352 Vg
DATAFLAG -32 128 ""
DATAFLAG -32 128 "$-V(Vd)"
DATAFLAG 240 208 ""
DATAFLAG 240 208 ""
DATAFLAG 240 208 ""
SYMBOL ind2 640 192 R180
WINDOW 0 36 80 Left 2
WINDOW 3 36 40 Left 2
SYMATTR InstName L2
SYMATTR Value 117.5µ
SYMATTR Type ind
SYMBOL ind2 224 32 R0
SYMATTR InstName L1
SYMATTR Value 45.9m
SYMATTR Type ind
SYMBOL voltage -928 160 R0
WINDOW 123 0 0 Left 0
WINDOW 39 0 0 Left 0
SYMATTR InstName V1
SYMATTR Value PULSE(0 311 2m 0.1n 0 10)
SYMBOL ind2 640 464 R180
WINDOW 0 36 80 Left 2
WINDOW 3 36 40 Left 2
SYMATTR InstName L3
SYMATTR Value 1.2m
SYMATTR Type ind
SYMBOL diode 704 112 R270
WINDOW 0 32 32 VTop 2
WINDOW 3 0 32 VBottom 2
SYMATTR InstName D1
SYMATTR Value myDiode1
SYMBOL diode 704 384 R270
WINDOW 0 32 32 VTop 2
WINDOW 3 0 32 VBottom 2
SYMATTR InstName D2
SYMATTR Value myDiode1
SYMBOL cap 800 112 R0
WINDOW 123 24 84 Left 2
SYMATTR Value2 IC=0
SYMATTR InstName C1
SYMATTR Value 60µ
SYMBOL cap 800 384 R0
WINDOW 123 24 84 Left 2
SYMATTR Value2 iC=0
SYMATTR InstName C2
SYMATTR Value 3.13µ
SYMBOL res 1024 96 R0
SYMATTR InstName R1
SYMATTR Value 20
SYMBOL res 1040 368 R0
SYMATTR InstName R2
SYMATTR Value 100
SYMBOL nmos 192 272 R0
SYMATTR InstName M1
SYMATTR Value R6020PNJ
SYMBOL res 64 336 R90
WINDOW 0 0 56 VBottom 2
WINDOW 3 32 56 VTop 2
SYMATTR InstName R3
SYMATTR Value 82
SYMBOL voltage -592 -304 R0
WINDOW 123 0 0 Left 0
WINDOW 39 0 0 Left 0
SYMATTR InstName V3
SYMATTR Value PULSE(0 16 0 1n 1n {D/fs} {1/fs})
SYMBOL ind 144 0 R90
WINDOW 0 5 56 VBottom 2
WINDOW 3 32 56 VTop 2
SYMATTR InstName L4
SYMATTR Value 0.615m
SYMBOL cap -48 48 R0
SYMATTR InstName C3
SYMATTR Value 10n
SYMBOL res -128 32 R0
SYMATTR InstName R4
SYMATTR Value 32k
SYMBOL diode 96 144 R90
WINDOW 0 0 32 VBottom 2
WINDOW 3 32 32 VTop 2
SYMATTR InstName D3
SYMATTR Value RF201L4S
SYMBOL res 208 144 R90
WINDOW 0 0 56 VBottom 2
WINDOW 3 32 56 VTop 2
SYMATTR InstName R5
SYMATTR Value 268
TEXT 352 64 Left 2 !K1 L1 L2 L3 1
TEXT 96 480 Left 2 !.tran 0 10m 0 0.01m
TEXT 96 504 Left 2 !.param D=0.15 fs=65e3 VD=0
TEXT 720 -168 Left 2 !.model MYSW SW(Ron=0.0001 Roff=100Meg Vt=.5 Vh=0.01)
TEXT 720 -136 Left 2 !.model myDiode1 D(Ron=0.0001 Roff=100Meg Vfwd={VD} Vrev=1000)
TEXT 1168 144 Left 2 ;5V@3A
TEXT 1168 424 Left 2 ;16V@500mA
