Version 4
SHEET 1 2128 1712
WIRE -368 448 -384 448
WIRE -704 480 -752 480
WIRE -592 480 -640 480
WIRE -384 480 -384 448
WIRE -384 480 -592 480
WIRE -208 480 -384 480
WIRE -752 528 -752 480
WIRE -592 528 -592 480
WIRE 304 528 32 528
WIRE 512 528 400 528
WIRE 672 528 576 528
WIRE 784 528 672 528
WIRE 32 576 32 528
WIRE 304 592 304 528
WIRE 400 592 400 528
WIRE 672 608 672 528
WIRE 784 608 784 528
WIRE -384 640 -384 480
WIRE -752 656 -752 592
WIRE -592 656 -592 608
WIRE 32 704 32 656
WIRE 304 720 304 672
WIRE -512 736 -1136 736
WIRE -208 736 -208 480
WIRE -208 736 -256 736
WIRE 400 736 400 672
WIRE 672 736 672 672
WIRE 672 736 400 736
WIRE 784 736 784 688
WIRE 784 736 672 736
WIRE 672 768 672 736
WIRE -1136 784 -1136 736
WIRE -544 800 -1040 800
WIRE -512 800 -544 800
WIRE -224 800 -256 800
WIRE -96 800 -144 800
WIRE 64 800 -96 800
WIRE 256 800 144 800
WIRE 512 816 400 816
WIRE 672 816 576 816
WIRE 784 816 672 816
WIRE -1040 832 -1040 800
WIRE -96 848 -96 800
WIRE -544 864 -544 800
WIRE -512 864 -544 864
WIRE 400 880 400 816
WIRE 672 896 672 816
WIRE 784 896 784 816
WIRE -1136 928 -1136 864
WIRE -1040 928 -1040 896
WIRE -512 928 -912 928
WIRE -96 944 -96 912
WIRE 304 976 304 816
WIRE -912 992 -912 928
WIRE -912 992 -944 992
WIRE -880 992 -912 992
WIRE -752 992 -800 992
WIRE -512 992 -752 992
WIRE -208 992 -256 992
WIRE 400 1024 400 960
WIRE 672 1024 672 960
WIRE 672 1024 400 1024
WIRE 784 1024 784 976
WIRE 784 1024 672 1024
WIRE -752 1040 -752 992
WIRE -512 1056 -608 1056
WIRE -160 1056 -256 1056
WIRE 672 1056 672 1024
WIRE -160 1088 -160 1056
WIRE -512 1120 -544 1120
WIRE -608 1136 -608 1056
WIRE -752 1152 -752 1120
WIRE -656 1184 -704 1184
WIRE -544 1184 -544 1120
WIRE -544 1184 -576 1184
WIRE -384 1184 -384 1152
WIRE -384 1184 -544 1184
WIRE -160 1184 -160 1152
WIRE -384 1232 -384 1184
WIRE -704 1280 -704 1184
WIRE -208 1280 -208 992
WIRE -208 1280 -704 1280
FLAG 304 976 0
FLAG 672 768 0
FLAG 32 704 0
FLAG 672 1056 0
FLAG -384 1232 0
FLAG -1136 928 0
FLAG -752 1152 0
FLAG -944 992 Vout16
FLAG -752 656 0
FLAG -592 656 0
FLAG 784 816 Vout16
FLAG -96 944 0
FLAG -384 448 Vout16
FLAG -1040 928 0
FLAG -160 1184 0
SYMBOL ind2 320 688 R180
WINDOW 0 36 80 Left 2
WINDOW 3 36 40 Left 2
SYMATTR InstName L1
SYMATTR Value 3m
SYMATTR SpiceLine Rser=0.5
SYMBOL nmos 256 720 R0
WINDOW 3 -177 108 Invisible 2
SYMATTR Value IPN80R1K2P7_L0
SYMATTR InstName M1
SYMATTR Prefix X
SYMBOL diode 512 544 R270
WINDOW 0 32 32 VTop 2
WINDOW 3 0 32 VBottom 2
SYMATTR InstName D5
SYMATTR Value MUR460
SYMBOL res 768 592 R0
SYMATTR InstName R1
SYMATTR Value 15
SYMBOL cap 656 608 R0
SYMATTR InstName C1
SYMATTR Value 100µ
SYMBOL ind2 384 576 R0
SYMATTR InstName L2
SYMATTR Value 86µ
SYMATTR Type ind
SYMATTR SpiceLine Rser=0.5
SYMBOL res 48 816 R270
WINDOW 0 27 56 VTop 2
WINDOW 3 3 56 VBottom 2
SYMATTR InstName R5
SYMATTR Value 47
SYMBOL voltage 32 560 R0
SYMATTR InstName V3
SYMATTR Value 311
SYMBOL diode 512 832 R270
WINDOW 0 32 32 VTop 2
WINDOW 3 0 32 VBottom 2
SYMATTR InstName D6
SYMATTR Value MUR460
SYMBOL cap 656 896 R0
SYMATTR InstName C3
SYMATTR Value 100µ ic=16
SYMBOL ind2 384 864 R0
SYMATTR InstName L3
SYMATTR Value 9.2µ
SYMATTR Type ind
SYMATTR SpiceLine Rser=0.5
SYMBOL sg3525a -384 896 R0
SYMATTR InstName U1
SYMBOL TCLib\\pot -672 1200 R270
SYMATTR InstName U2
SYMBOL cap -1056 832 R0
SYMATTR InstName C4
SYMATTR Value 1n
SYMBOL res -1152 768 R0
SYMATTR InstName R3
SYMATTR Value 5.6k
SYMBOL res -784 976 R90
WINDOW 0 3 56 VBottom 2
WINDOW 3 27 56 VTop 2
SYMATTR InstName R4
SYMATTR Value 47k
SYMBOL res -768 1024 R0
SYMATTR InstName R6
SYMATTR Value 10k
SYMBOL cap -768 528 R0
SYMATTR InstName C7
SYMATTR Value 100n
SYMBOL LED -704 496 R270
WINDOW 0 72 32 VTop 2
WINDOW 3 0 32 VBottom 2
SYMATTR InstName D8
SYMBOL res -608 512 R0
SYMATTR InstName R9
SYMATTR Value 330
SYMBOL res -128 784 R90
WINDOW 0 3 56 VBottom 2
WINDOW 3 27 56 VTop 2
SYMATTR InstName R2
SYMATTR Value 56
SYMBOL cap -112 848 R0
SYMATTR InstName C5
SYMATTR Value 1n
SYMBOL cap -176 1088 R0
SYMATTR InstName C2
SYMATTR Value 10n
TEXT 1112 -32 Left 2 !.SUBCKT IPN80R1K2P7_L0  drain  gate  source\nLg     gate  g1    3n\nLd     drain d1    1n\nLs     source s1   2n\nRs      s1    s2   17.4m\nRg     g1    g2     1.5\nM1      d2    g2    s2    s2    DMOS    L=1u   W=1u\n.MODEL DMOS NMOS ( KP= 6.893  VTO=3.7  THETA=0  VMAX=1.5e5  ETA=0  LEVEL=3)\nRd     d2    d1a    0.813 TC=13m\n.MODEL MVDR NMOS (KP=8.88 VTO=-1   LAMBDA=0.15)\nMr d1 d2a d1a d1a MVDR W=1u L=1u\nRx d2a d1a 1m\nCds1 s2 d2 1.9p\nDbd     s2    d2    Dbt\n.MODEL     Dbt    D(BV=800   M=0.9  CJO=0.77n  VJ=0.5V)\nDbody   s2   21    DBODY\n.MODEL DBODY  D(IS=1171.1p  N=1.5  RS=79u  EG=1.12  TT=250n)\nRdiode  d1  21    39.39m TC=1m\n.MODEL   sw    NMOS(VTO=0  KP=10   LEVEL=1)\nMaux      g2   c    a    a   sw\nMaux2     b    d    g2    g2   sw\nEaux      c    a    d2    g2   1\nEaux2     d    g2   d2    g2   -1\nCox       b    d2   0.54n\n.MODEL     DGD    D(M=0.9   CJO=0.54n   VJ=0.5)\nRpar      b    d2   1Meg\nDgd       a    d2   DGD\nRpar2     d2   a    10Meg\nCgs     g2    s2    0.39n\n.ENDS  IPN80R1K2P7_L0
TEXT 1104 848 Left 2 !.param T = 1/150k
TEXT 1104 888 Left 2 !.param D = 0.2
TEXT 1104 960 Left 2 !.tran 0 50m 0 0.1m
TEXT 408 1080 Left 2 !K1 L1 L2 L3 1
TEXT 1112 1008 Left 2 !.options abstol=0.1u reltol=1m
