Version 4.1
SHEET 1 1952 1348
WIRE 704 96 624 96
WIRE 816 96 768 96
WIRE 912 96 816 96
WIRE 816 112 816 96
WIRE 240 144 160 144
WIRE 624 192 624 176
WIRE 816 192 816 176
WIRE 816 192 624 192
WIRE 912 192 816 192
WIRE 912 208 912 192
WIRE 240 272 240 224
WIRE 192 352 112 352
WIRE 704 368 624 368
WIRE 816 368 768 368
WIRE 912 368 816 368
WIRE 816 384 816 368
WIRE 624 464 624 448
WIRE 816 464 816 448
WIRE 816 464 624 464
WIRE 912 464 816 464
WIRE 912 480 912 464
WIRE 800 752 800 720
WIRE 896 752 800 752
WIRE 928 752 896 752
WIRE 1040 752 1008 752
WIRE 1120 752 1120 720
WIRE 1120 752 1040 752
WIRE 800 768 800 752
WIRE 1120 768 1120 752
WIRE 272 784 256 784
WIRE 256 816 256 784
WIRE 272 816 256 816
WIRE 1456 816 1376 816
WIRE 256 848 256 816
WIRE 272 848 256 848
WIRE 896 848 896 752
WIRE 944 848 896 848
WIRE 1040 848 1040 752
WIRE 1040 848 992 848
WIRE 1376 864 1376 816
WIRE 256 880 256 848
WIRE 272 880 256 880
WIRE 944 896 944 848
WIRE 992 896 992 848
WIRE 928 944 880 944
WIRE 1104 944 1008 944
WIRE 1104 960 1104 944
WIRE 1712 960 1600 960
WIRE 1456 976 1456 816
WIRE 1424 992 1360 992
WIRE 1600 992 1600 960
WIRE 1552 1008 1488 1008
WIRE 1424 1024 1360 1024
WIRE 1456 1072 1456 1040
WIRE 1552 1072 1552 1056
WIRE 880 1104 880 944
FLAG -96 -112 0
FLAG -96 -192 Vd
FLAG 160 144 Vd
FLAG 912 96 Vo1+
FLAG 32 -112 0
FLAG 32 -192 Vg
FLAG 912 368 Vo2
FLAG 912 480 0
FLAG 912 192 Vo1-
FLAG 912 208 0
FLAG 1040 112 Vo1+
FLAG 1040 192 0
FLAG 1056 384 Vo2
FLAG 1056 464 0
FLAG 800 640 Vo2
FLAG 800 848 0
FLAG 1248 784 0
FLAG 1248 704 Vref
FLAG 1120 640 Vref
FLAG 1120 848 0
FLAG 1104 1104 0
FLAG 880 1104 0
FLAG 1104 944 COMP
FLAG 1008 1328 0
FLAG 1008 1248 Vtriang
FLAG 1360 1024 Vtriang
FLAG 1360 992 COMP
FLAG 1456 1072 0
FLAG 1376 944 0
FLAG 1552 1072 0
FLAG 1600 1072 0
FLAG 1712 960 Vcontrol
FLAG 240 368 0
FLAG 112 352 Vcontrol
SYMBOL ind 640 192 R180
WINDOW 0 36 80 Left 2
WINDOW 3 36 40 Left 2
SYMATTR InstName L2
SYMATTR Value 127µ
SYMBOL ind 224 128 R0
SYMATTR InstName L1
SYMATTR Value 50.8m
SYMBOL voltage -96 -208 R0
WINDOW 123 0 0 Left 0
WINDOW 39 0 0 Left 0
SYMATTR InstName V1
SYMATTR Value 300
SYMBOL voltage 32 -208 R0
WINDOW 123 0 0 Left 0
WINDOW 39 0 0 Left 0
SYMATTR InstName V2
SYMATTR Value PULSE(0 1 0 0.1u 0.1u {D/fs} {1/fs})
SYMBOL ind 640 464 R180
WINDOW 0 36 80 Left 2
WINDOW 3 36 40 Left 2
SYMATTR InstName L3
SYMATTR Value 1.30m
SYMBOL diode 704 112 R270
WINDOW 0 32 32 VTop 2
WINDOW 3 0 32 VBottom 2
SYMATTR InstName D1
SYMATTR Value myDiode1
SYMBOL diode 704 384 R270
WINDOW 0 32 32 VTop 2
WINDOW 3 0 32 VBottom 2
SYMATTR InstName D2
SYMATTR Value myDiode1
SYMBOL cap 800 112 R0
WINDOW 123 24 84 Left 2
SYMATTR Value2 IC=0
SYMATTR InstName C1
SYMATTR Value 60µ
SYMBOL cap 800 384 R0
WINDOW 123 24 84 Left 2
SYMATTR Value2 IC=0
SYMATTR InstName C2
SYMATTR Value 3.13µ
SYMBOL res 1024 96 R0
SYMATTR InstName R1
SYMATTR Value 1.67
SYMBOL res 1040 368 R0
SYMATTR InstName R2
SYMATTR Value 32
SYMBOL MyPWMC 352 784 R0
SYMATTR InstName U1
SYMBOL res 1024 736 R90
WINDOW 0 0 56 VBottom 2
WINDOW 3 32 56 VTop 2
SYMATTR InstName R3
SYMATTR Value 100Meg
SYMBOL g 1024 944 R90
SYMATTR InstName G1
SYMATTR Value 100k
SYMBOL res 784 624 R0
SYMATTR InstName R4
SYMATTR Value 10k
SYMBOL res 784 752 R0
SYMATTR InstName R5
SYMATTR Value 1.8k
SYMBOL voltage 1248 688 R0
WINDOW 123 0 0 Left 0
WINDOW 39 0 0 Left 0
SYMATTR InstName V3
SYMATTR Value 5
SYMBOL res 1136 624 M0
SYMATTR InstName R7
SYMATTR Value 10k
SYMBOL res 1136 752 M0
SYMATTR InstName R8
SYMATTR Value 9k
SYMBOL res 1088 944 R0
SYMATTR InstName R6
SYMATTR Value 10k
SYMBOL cap 1088 1040 R0
SYMATTR InstName C3
SYMATTR Value 1n
SYMBOL voltage 1008 1232 R0
WINDOW 123 0 0 Left 0
WINDOW 39 0 0 Left 0
SYMATTR InstName V4
SYMATTR Value PULSE(1 3 0 {0.99/fs} {0.01/fs} 0 {1/fs})
SYMBOL voltage 1376 848 R0
WINDOW 123 0 0 Left 0
WINDOW 39 0 0 Left 0
SYMATTR InstName V5
SYMATTR Value 16
SYMBOL e 1600 976 R0
SYMATTR InstName E1
SYMATTR Value 1
SYMBOL nmos 192 272 R0
SYMATTR InstName M1
SYMBOL MyComparator 1456 1008 R0
SYMATTR InstName U2
TEXT 352 64 Left 2 !K1 L1 L2 L3 1
TEXT 96 480 Left 2 !.tran 0 20m 0
TEXT 96 504 Left 2 !.param D=0.238 fs=125e3 VD=0
TEXT 720 -168 Left 2 !.model MYSW SW(Ron=0.0001 Roff=100Meg Vt=.5 Vh=0.01)
TEXT 720 -136 Left 2 !.model myDiode1 D(Ron=0.0001 Roff=100Meg Vfwd={VD} Vrev=1000)
TEXT 1168 144 Left 2 ;5V@3A
TEXT 1168 424 Left 2 ;16V@500mA
TEXT 1160 808 Right 2 ;PRESET
